37
STI
C         11.87900       62.27200       12.57000
C         13.00200       61.42900       12.91000
C         13.09700       60.07000       12.39200
C         12.03100       59.59100       11.52500
N         10.96100       60.42500       11.21600
C         10.85800       61.73400       11.71000
C         14.23800       59.15500       12.71200
C         15.43300       59.57900       13.38300
C         16.42800       58.60300       13.61500
N         16.23200       57.30300       13.20200
C         15.06700       56.92700       12.55900
N         14.10100       57.84000       12.32700
N         14.85200       55.62700       12.12800
C         15.82200       54.64100       12.32200
C         16.95000       54.50200       11.39300
C         17.91500       53.47100       11.64800
C         17.77400       52.59700       12.78600
C         16.67800       52.72700       13.68800
C         15.69800       53.77200       13.43600
N         16.60000       51.81000       14.79800
C         15.62900       51.74700       15.78400
C         15.59500       50.55800       16.68900
C         14.42300       50.26800       17.51900
C         14.42300       49.12400       18.39600
C         15.60000       48.26000       18.44600
C         16.74700       48.56800       17.60800
C         16.75100       49.68900       16.74800
C         15.69600       47.03000       19.36800
N         16.91700       46.90700       20.21900
C         17.09700       48.14000       21.07000
C         18.37500       48.04100       21.94900
N         18.33700       46.79400       22.82100
C         19.52200       46.65500       23.68000
C         18.17200       45.53300       21.97100
C         16.87700       45.65800       21.10400
O         14.78900       52.61200       15.98300
C         17.14800       55.40600       10.15400
