13

N          3.40100        8.23600       53.10200
C          3.40000        8.08600       54.54600
C          4.60700        8.81400       55.11900
C          2.14300        8.72300       55.13000
H          4.24307        7.80868       52.71637
H          3.38291        9.22748       52.86315
H          3.43135        7.04491       54.79103
H          4.55339        9.85113       54.86134
H          5.50320        8.39189       54.71460
H          4.61320        8.71093       56.18401
H          2.12096        9.76308       54.87970
H          2.14852        8.61230       56.19424
H          1.27779        8.24044       54.72570
