13

C        -10.99200       -8.79600       60.61700
C        -11.24100       -8.29700       61.88900
C        -11.98400       -7.13300       62.04500
O        -12.23100       -6.63800       63.28600
C        -12.47600       -6.46900       60.92800
C        -12.23000       -6.96900       59.65700
C        -11.49200       -8.13500       59.50100
H        -10.43582       -9.65744       60.50036
H        -10.87441       -8.79041       62.71797
H        -12.73249       -5.85284       63.38595
H        -13.02507       -5.60288       61.04368
H        -12.59535       -6.47453       58.82812
H        -11.31473       -8.51085       58.55636
