33
HYZ
C         14.71800       40.11600       97.09900
C         16.03100       40.22200       97.63200
C         16.87800       39.07600       97.68600
N         13.96700       33.25800       86.94900
C         17.32300       36.55800       97.26000
C         15.58500       33.76000       95.99400
C         16.07500       34.22100       94.75600
C         16.84000       35.35800       95.07000
C         17.51400       36.12900       94.07600
C         17.39000       35.71200       92.73500
C         16.62500       34.57400       92.38200
C         15.96500       33.81700       93.40300
C         14.12400       33.64500       88.26400
C         15.39100       33.71900       88.89600
C         16.64400       33.39500       88.18600
C         19.50900       31.99700       84.85800
C         18.12700       31.93400       85.53700
C         19.16700       31.52400       87.74000
C         20.55400       31.19000       85.63500
C         16.41900       37.80800       97.20900
C         15.08300       37.73000       96.67500
C         14.25600       38.86900       96.62500
F         13.01100       38.75600       96.11800
N         16.73100       35.49300       96.43400
N         15.97100       34.51900       97.01900
N         16.52500       34.24800       91.03700
N         12.95400       33.96300       88.91100
C         15.39100       34.12000       90.23100
N         14.21200       34.44400       90.89200
C         13.04100       34.35200       90.20100
N         16.90000       32.29000       87.55900
N         18.14600       32.34400       86.98400
C         20.57300       31.59600       87.11200
